/*--------------------------------*- C++ -*----------------------------------*\
| =========                 |                                                 |
| \\      /  F ield         | OpenFOAM: The Open Source CFD Toolbox           |
|  \\    /   O peration     | Version:  2.4.0                                 |
|   \\  /    A nd           | Web:      www.OpenFOAM.org                      |
|    \\/     M anipulation  |                                                 |
\*---------------------------------------------------------------------------*/
FoamFile
{
    version     2.0;
    format      ascii;
    class       dictionary;
    location    "system";
    object      controlDict;
}
// * * * * * * * * * * * * * * * * * * * * * * * * * * * * * * * * * * * * * //

application     darcyIcoFoam;

startFrom       latestTime;

startTime       0;

stopAt          endTime;

endTime         40;

deltaT          1;

writeControl    timeStep;

writeInterval   1;

purgeWrite      10;

writeFormat     ascii;

writePrecision  6;

writeCompression off;

timeFormat      general;

timePrecision   6;

runTimeModifiable true;


// ************************************************************************* //

/*
functions
{
    sysCall
    {
        type systemCall;
        functionObjectLibs ( "libsystemCall.so" );
        executeCalls 0();
        endCalls 0();
        writeCalls 1("python getResults.py");
        outputControl outputTime;
        outputInterval 1;
    }
}	 
*/
